cases/static/IEEE118_v32.raw
0,   100.00          / TUE, MAR 19 2002  15:14
IEEE118 Network

    1,'1       ',   1.0000,1,     1,     1,   1,   1,0.95717, -19.1304,   1
    2,'2       ',   1.0000,1,     1,     1,   1,   1,0.97222, -18.5720,   1
    3,'3       ',   1.0000,1,     1,     1,   1,   1,0.96902, -18.2342,   1
    4,'4       ',   1.0000,2,     1,     1,   1,   1,0.99800, -14.5009,   1
    5,'5       ',   1.0000,1,     1,     1,   1,   1,1.00207, -14.0558,   1
    6,'6       ',   1.0000,2,     1,     1,   1,   1,0.99000, -16.7817,   1
    7,'7       ',   1.0000,1,     1,     1,   1,   1,0.98932, -17.2262,   1
    8,'8       ',   1.0000,2,     1,     1,   1,   1,1.01500,  -9.0332,   1
    9,'9       ',   1.0000,1,     1,     1,   1,   1,1.04278,  -1.7770,   1
   10,'10      ',   1.0000,2,     1,     1,   1,   1,1.05000,   5.8045,   1
   11,'11      ',   1.0000,1,     1,     1,   1,   1,0.98510, -17.0690,   1
   12,'12      ',   1.0000,2,     1,     1,   1,   1,0.99000, -17.5845,   1
   13,'13      ',   1.0000,1,     1,     1,   1,   1,0.96824, -18.4445,   1
   14,'14      ',   1.0000,1,     1,     1,   1,   1,0.98359, -18.3032,   1
   15,'15      ',   1.0000,2,     1,     1,   1,   1,0.97000, -18.6037,   1
   16,'16      ',   1.0000,1,     1,     1,   1,   1,0.98392, -17.8923,   1
   17,'17      ',   1.0000,1,     1,     1,   1,   1,0.99515, -16.0978,   1
   18,'18      ',   1.0000,2,     1,     1,   1,   1,0.97300, -18.3037,   1
   19,'19      ',   1.0000,2,     1,     1,   1,   1,0.96341, -18.7807,   1
   20,'20      ',   1.0000,1,     1,     1,   1,   1,0.95799, -17.8715,   1
   21,'21      ',   1.0000,1,     1,     1,   1,   1,0.95853, -16.2620,   1
   22,'22      ',   1.0000,1,     1,     1,   1,   1,0.96956, -13.6830,   1
   23,'23      ',   1.0000,1,     1,     1,   1,   1,0.99967,  -8.7239,   1
   24,'24      ',   1.0000,2,     1,     1,   1,   1,0.99200,  -8.8668,   1
   25,'25      ',   1.0000,2,     1,     1,   1,   1,1.05000,  -1.8020,   1
   26,'26      ',   1.0000,2,     1,     1,   1,   1,1.01500,  -0.0476,   1
   27,'27      ',   1.0000,2,     1,     1,   1,   1,0.96800, -14.2757,   1
   28,'28      ',   1.0000,1,     1,     1,   1,   1,0.96158, -15.9275,   1
   29,'29      ',   1.0000,1,     1,     1,   1,   1,0.96320, -16.8388,   1
   30,'30      ',   1.0000,1,     1,     1,   1,   1,0.98545, -11.0385,   1
   31,'31      ',   1.0000,2,     1,     1,   1,   1,0.96700, -16.6930,   1
   32,'32      ',   1.0000,2,     1,     1,   1,   1,0.96363, -14.8409,   1
   33,'33      ',   1.0000,1,     1,     1,   1,   1,0.97157, -19.2230,   1
   34,'34      ',   1.0000,2,     1,     1,   1,   1,0.98584, -18.5739,   1
   35,'35      ',   1.0000,1,     1,     1,   1,   1,0.98068, -19.0015,   1
   36,'36      ',   1.0000,2,     1,     1,   1,   1,0.98000, -18.9972,   1
   37,'37      ',   1.0000,1,     1,     1,   1,   1,0.99199, -18.1109,   1
   38,'38      ',   1.0000,1,     1,     1,   1,   1,0.96198, -12.9732,   1
   39,'39      ',   1.0000,1,     1,     1,   1,   1,0.97046, -21.4814,   1
   40,'40      ',   1.0000,2,     1,     1,   1,   1,0.97000, -22.5542,   1
   41,'41      ',   1.0000,1,     1,     1,   1,   1,0.96683, -22.9994,   1
   42,'42      ',   1.0000,2,     1,     1,   1,   1,0.98500, -21.4018,   1
   43,'43      ',   1.0000,1,     1,     1,   1,   1,0.97845, -18.6162,   1
   44,'44      ',   1.0000,1,     1,     1,   1,   1,0.98499, -16.1251,   1
   45,'45      ',   1.0000,1,     1,     1,   1,   1,0.98664, -14.2924,   1
   46,'46      ',   1.0000,2,     1,     1,   1,   1,1.00500, -11.4831,   1
   47,'47      ',   1.0000,1,     1,     1,   1,   1,1.01703,  -9.2546,   1
   48,'48      ',   1.0000,1,     1,     1,   1,   1,1.02063, -10.0438,   1
   49,'49      ',   1.0000,2,     1,     1,   1,   1,1.02500,  -9.0417,   1
   50,'50      ',   1.0000,1,     1,     1,   1,   1,1.00108, -11.0854,   1
   51,'51      ',   1.0000,1,     1,     1,   1,   1,0.96686, -13.7097,   1
   52,'52      ',   1.0000,1,     1,     1,   1,   1,0.95681, -14.6642,   1
   53,'53      ',   1.0000,1,     1,     1,   1,   1,0.94598, -15.6420,   1
   54,'54      ',   1.0000,2,     1,     1,   1,   1,0.95500, -14.7324,   1
   55,'55      ',   1.0000,2,     1,     1,   1,   1,0.95200, -15.0239,   1
   56,'56      ',   1.0000,2,     1,     1,   1,   1,0.95400, -14.8398,   1
   57,'57      ',   1.0000,1,     1,     1,   1,   1,0.97058, -13.6284,   1
   58,'58      ',   1.0000,1,     1,     1,   1,   1,0.95903, -14.4860,   1
   59,'59      ',   1.0000,2,     1,     1,   1,   1,0.98500, -10.6047,   1
   60,'60      ',   1.0000,1,     1,     1,   1,   1,0.99319,  -6.8330,   1
   61,'61      ',   1.0000,2,     1,     1,   1,   1,0.99500,  -5.9425,   1
   62,'62      ',   1.0000,2,     1,     1,   1,   1,0.99800,  -6.5595,   1
   63,'63      ',   1.0000,1,     1,     1,   1,   1,0.96877,  -7.2347,   1
   64,'64      ',   1.0000,1,     1,     1,   1,   1,0.98374,  -5.4729,   1
   65,'65      ',   1.0000,2,     1,     1,   1,   1,1.00500,  -2.3572,   1
   66,'66      ',   1.0000,2,     1,     1,   1,   1,1.05000,  -2.5111,   1
   67,'67      ',   1.0000,1,     1,     1,   1,   1,1.01968,  -5.1483,   1
   68,'68      ',   1.0000,1,     1,     1,   1,   1,1.00318,  -2.4850,   1
   69,'69      ',   1.0000,3,     1,     1,   2,   1,1.03500,   0.0000,   1
   70,'70      ',   1.0000,2,     1,     1,   1,   1,0.98400,  -7.3041,   1
   71,'71      ',   1.0000,1,     1,     1,   1,   1,0.98685,  -7.7201,   1
   72,'72      ',   1.0000,2,     1,     1,   1,   1,0.98000,  -8.8442,   1
   73,'73      ',   1.0000,2,     1,     1,   1,   1,0.99100,  -7.9318,   1
   74,'74      ',   1.0000,2,     1,     1,   1,   1,0.95808,  -8.2284,   1
   75,'75      ',   1.0000,1,     1,     1,   1,   1,0.96759,  -6.9622,   1
   76,'76      ',   1.0000,2,     1,     1,   1,   1,0.94300,  -8.0260,   1
   77,'77      ',   1.0000,2,     1,     1,   1,   1,1.00805,  -3.0322,   1
   78,'78      ',   1.0000,1,     1,     1,   1,   1,1.00519,  -3.3887,   1
   79,'79      ',   1.0000,1,     1,     1,   1,   1,1.01061,  -3.1966,   1
   80,'80      ',   1.0000,2,     1,     1,   1,   1,1.04000,  -1.2486,   1
   81,'81      ',   1.0000,1,     1,     1,   1,   1,0.99673,  -1.9962,   1
   82,'82      ',   1.0000,2,     1,     1,   1,   1,1.00000,  -3.0300,   1
   83,'83      ',   1.0000,1,     1,     1,   1,   1,0.99376,  -2.0159,   1
   84,'84      ',   1.0000,1,     1,     1,   1,   1,0.98510,   0.2517,   1
   85,'85      ',   1.0000,2,     1,     1,   1,   1,0.98827,   1.6808,   1
   86,'86      ',   1.0000,1,     1,     1,   1,   1,0.98880,   0.3386,   1
   87,'87      ',   1.0000,2,     1,     1,   1,   1,1.01500,   0.6139,   1
   88,'88      ',   1.0000,1,     1,     1,   1,   1,0.98903,   4.5500,   1
   89,'89      ',   1.0000,2,     1,     1,   1,   1,1.00500,   8.4297,   1
   90,'90      ',   1.0000,2,     1,     1,   1,   1,0.98500,   0.3532,   1
   91,'91      ',   1.0000,2,     1,     1,   1,   1,0.98000,   1.6822,   1
   92,'92      ',   1.0000,2,     1,     1,   1,   1,0.99699,   4.0883,   1
   93,'93      ',   1.0000,1,     1,     1,   1,   1,0.99086,   0.9672,   1
   94,'94      ',   1.0000,1,     1,     1,   1,   1,0.99400,  -1.2884,   1
   95,'95      ',   1.0000,1,     1,     1,   1,   1,0.98532,  -2.3316,   1
   96,'96      ',   1.0000,1,     1,     1,   1,   1,0.99820,  -2.5971,   1
   97,'97      ',   1.0000,1,     1,     1,   1,   1,1.01424,  -2.2732,   1
   98,'98      ',   1.0000,1,     1,     1,   1,   1,1.02353,  -2.6854,   1
   99,'99      ',   1.0000,2,     1,     1,   1,   1,1.01000,  -2.9414,   1
  100,'100     ',   1.0000,2,     1,     1,   1,   1,1.01700,  -1.8566,   1
  101,'101     ',   1.0000,1,     1,     1,   1,   1,0.99442,  -0.2013,   1
  102,'102     ',   1.0000,1,     1,     1,   1,   1,0.99479,   2.5589,   1
  103,'103     ',   1.0000,2,     1,     1,   1,   1,1.00635,  -5.5020,   1
  104,'104     ',   1.0000,2,     1,     1,   1,   1,0.98823,  -8.3859,   1
  105,'105     ',   1.0000,2,     1,     1,   1,   1,0.98242,  -9.4767,   1
  106,'106     ',   1.0000,1,     1,     1,   1,   1,0.97262,  -9.6317,   1
  107,'107     ',   1.0000,2,     1,     1,   1,   1,0.95200, -12.1922,   1
  108,'108     ',   1.0000,1,     1,     1,   1,   1,0.97673, -10.5306,   1
  109,'109     ',   1.0000,1,     1,     1,   1,   1,0.97469, -10.9295,   1
  110,'110     ',   1.0000,2,     1,     1,   1,   1,0.97300, -11.6486,   1
  111,'111     ',   1.0000,2,     1,     1,   1,   1,0.98000, -10.0035,   1
  112,'112     ',   1.0000,2,     1,     1,   1,   1,0.97500, -14.7478,   1
  113,'113     ',   1.0000,2,     1,     1,   1,   1,0.99300, -16.2094,   1
  114,'114     ',   1.0000,1,     1,     1,   1,   1,0.96046, -15.1658,   1
  115,'115     ',   1.0000,1,     1,     1,   1,   1,0.96035, -15.1725,   1
  116,'116     ',   1.0000,2,     1,     1,   1,   1,1.00500,  -2.9237,   1
  117,'117     ',   1.0000,1,     1,     1,   1,   1,0.98241, -17.6279,   1
  118,'118     ',   1.0000,1,     1,     1,   1,   1,0.94958,  -7.9190,   1
0  / END OF BUS DATA, BEGIN LOAD DATA
    1,'1 ',1,   1,   1,    51.000,    27.000,     0.000,     0.000,     0.000,     0.000,   1
    2,'1 ',1,   1,   1,    20.000,     9.000,     0.000,     0.000,     0.000,     0.000,   1
    3,'1 ',1,   1,   1,    39.000,    10.000,     0.000,     0.000,     0.000,     0.000,   1
    4,'1 ',1,   1,   1,    30.000,    12.000,     0.000,     0.000,     0.000,     0.000,   1
    6,'1 ',1,   1,   1,    52.000,    22.000,     0.000,     0.000,     0.000,     0.000,   1
    7,'1 ',1,   1,   1,    19.000,     2.000,     0.000,     0.000,     0.000,     0.000,   1
   11,'1 ',1,   1,   1,    70.000,    23.000,     0.000,     0.000,     0.000,     0.000,   1
   12,'1 ',1,   1,   1,    47.000,    10.000,     0.000,     0.000,     0.000,     0.000,   1
   13,'1 ',1,   1,   1,    34.000,    16.000,     0.000,     0.000,     0.000,     0.000,   1
   14,'1 ',1,   1,   1,    14.000,     1.000,     0.000,     0.000,     0.000,     0.000,   1
   15,'1 ',1,   1,   1,    90.000,    30.000,     0.000,     0.000,     0.000,     0.000,   1
   16,'1 ',1,   1,   1,    25.000,    10.000,     0.000,     0.000,     0.000,     0.000,   1
   17,'1 ',1,   1,   1,    11.000,     3.000,     0.000,     0.000,     0.000,     0.000,   1
   18,'1 ',1,   1,   1,    60.000,    34.000,     0.000,     0.000,     0.000,     0.000,   1
   19,'1 ',1,   1,   1,    45.000,    25.000,     0.000,     0.000,     0.000,     0.000,   1
   20,'1 ',1,   1,   1,    18.000,     3.000,     0.000,     0.000,     0.000,     0.000,   1
   21,'1 ',1,   1,   1,    14.000,     8.000,     0.000,     0.000,     0.000,     0.000,   1
   22,'1 ',1,   1,   1,    10.000,     5.000,     0.000,     0.000,     0.000,     0.000,   1
   23,'1 ',1,   1,   1,     7.000,     3.000,     0.000,     0.000,     0.000,     0.000,   1
   27,'1 ',1,   1,   1,    62.000,    13.000,     0.000,     0.000,     0.000,     0.000,   1
   28,'1 ',1,   1,   1,    17.000,     7.000,     0.000,     0.000,     0.000,     0.000,   1
   29,'1 ',1,   1,   1,    24.000,     4.000,     0.000,     0.000,     0.000,     0.000,   1
   31,'1 ',1,   1,   1,    43.000,    27.000,     0.000,     0.000,     0.000,     0.000,   1
   32,'1 ',1,   1,   1,    59.000,    23.000,     0.000,     0.000,     0.000,     0.000,   1
   33,'1 ',1,   1,   1,    23.000,     9.000,     0.000,     0.000,     0.000,     0.000,   1
   34,'1 ',1,   1,   1,    59.000,    26.000,     0.000,     0.000,     0.000,     0.000,   1
   35,'1 ',1,   1,   1,    33.000,     9.000,     0.000,     0.000,     0.000,     0.000,   1
   36,'1 ',1,   1,   1,    31.000,    17.000,     0.000,     0.000,     0.000,     0.000,   1
   39,'1 ',1,   1,   1,    27.000,    11.000,     0.000,     0.000,     0.000,     0.000,   1
   40,'1 ',1,   1,   1,    20.000,    23.000,     0.000,     0.000,     0.000,     0.000,   1
   41,'1 ',1,   1,   1,    37.000,    10.000,     0.000,     0.000,     0.000,     0.000,   1
   42,'1 ',1,   1,   1,    37.000,    23.000,     0.000,     0.000,     0.000,     0.000,   1
   43,'1 ',1,   1,   1,    18.000,     7.000,     0.000,     0.000,     0.000,     0.000,   1
   44,'1 ',1,   1,   1,    16.000,     8.000,     0.000,     0.000,     0.000,     0.000,   1
   45,'1 ',1,   1,   1,    53.000,    22.000,     0.000,     0.000,     0.000,     0.000,   1
   46,'1 ',1,   1,   1,    28.000,    10.000,     0.000,     0.000,     0.000,     0.000,   1
   47,'1 ',1,   1,   1,    34.000,     0.000,     0.000,     0.000,     0.000,     0.000,   1
   48,'1 ',1,   1,   1,    20.000,    11.000,     0.000,     0.000,     0.000,     0.000,   1
   49,'1 ',1,   1,   1,    87.000,    30.000,     0.000,     0.000,     0.000,     0.000,   1
   50,'1 ',1,   1,   1,    17.000,     4.000,     0.000,     0.000,     0.000,     0.000,   1
   51,'1 ',1,   1,   1,    17.000,     8.000,     0.000,     0.000,     0.000,     0.000,   1
   52,'1 ',1,   1,   1,    18.000,     5.000,     0.000,     0.000,     0.000,     0.000,   1
   53,'1 ',1,   1,   1,    23.000,    11.000,     0.000,     0.000,     0.000,     0.000,   1
   54,'1 ',1,   1,   1,   113.000,    32.000,     0.000,     0.000,     0.000,     0.000,   1
   55,'1 ',1,   1,   1,    63.000,    22.000,     0.000,     0.000,     0.000,     0.000,   1
   56,'1 ',1,   1,   1,    84.000,    18.000,     0.000,     0.000,     0.000,     0.000,   1
   57,'1 ',1,   1,   1,    12.000,     3.000,     0.000,     0.000,     0.000,     0.000,   1
   58,'1 ',1,   1,   1,    12.000,     3.000,     0.000,     0.000,     0.000,     0.000,   1
   59,'1 ',1,   1,   1,   277.000,   113.000,     0.000,     0.000,     0.000,     0.000,   1
   60,'1 ',1,   1,   1,    78.000,     3.000,     0.000,     0.000,     0.000,     0.000,   1
   62,'1 ',1,   1,   1,    77.000,    14.000,     0.000,     0.000,     0.000,     0.000,   1
   66,'1 ',1,   1,   1,    39.000,    18.000,     0.000,     0.000,     0.000,     0.000,   1
   67,'1 ',1,   1,   1,    28.000,     7.000,     0.000,     0.000,     0.000,     0.000,   1
   70,'1 ',1,   1,   1,    66.000,    20.000,     0.000,     0.000,     0.000,     0.000,   1
   74,'1 ',1,   1,   1,    68.000,    27.000,     0.000,     0.000,     0.000,     0.000,   1
   75,'1 ',1,   1,   1,    47.000,    11.000,     0.000,     0.000,     0.000,     0.000,   1
   76,'1 ',1,   1,   1,    68.000,    36.000,     0.000,     0.000,     0.000,     0.000,   1
   77,'1 ',1,   1,   1,    61.000,    28.000,     0.000,     0.000,     0.000,     0.000,   1
   78,'1 ',1,   1,   1,    71.000,    26.000,     0.000,     0.000,     0.000,     0.000,   1
   79,'1 ',1,   1,   1,    39.000,    32.000,     0.000,     0.000,     0.000,     0.000,   1
   80,'1 ',1,   1,   1,   130.000,    26.000,     0.000,     0.000,     0.000,     0.000,   1
   82,'1 ',1,   1,   1,    54.000,    27.000,     0.000,     0.000,     0.000,     0.000,   1
   83,'1 ',1,   1,   1,    20.000,    10.000,     0.000,     0.000,     0.000,     0.000,   1
   84,'1 ',1,   1,   1,    11.000,     7.000,     0.000,     0.000,     0.000,     0.000,   1
   85,'1 ',1,   1,   1,    24.000,    15.000,     0.000,     0.000,     0.000,     0.000,   1
   86,'1 ',1,   1,   1,    21.000,    10.000,     0.000,     0.000,     0.000,     0.000,   1
   88,'1 ',1,   1,   1,    48.000,    10.000,     0.000,     0.000,     0.000,     0.000,   1
   90,'1 ',1,   1,   1,    78.000,    42.000,     0.000,     0.000,     0.000,     0.000,   1
   92,'1 ',1,   1,   1,    65.000,    10.000,     0.000,     0.000,     0.000,     0.000,   1
   93,'1 ',1,   1,   1,    12.000,     7.000,     0.000,     0.000,     0.000,     0.000,   1
   94,'1 ',1,   1,   1,    30.000,    16.000,     0.000,     0.000,     0.000,     0.000,   1
   95,'1 ',1,   1,   1,    42.000,    31.000,     0.000,     0.000,     0.000,     0.000,   1
   96,'1 ',1,   1,   1,    38.000,    15.000,     0.000,     0.000,     0.000,     0.000,   1
   97,'1 ',1,   1,   1,    15.000,     9.000,     0.000,     0.000,     0.000,     0.000,   1
   98,'1 ',1,   1,   1,    34.000,     8.000,     0.000,     0.000,     0.000,     0.000,   1
  100,'1 ',1,   1,   1,    37.000,    18.000,     0.000,     0.000,     0.000,     0.000,   1
  101,'1 ',1,   1,   1,    22.000,    15.000,     0.000,     0.000,     0.000,     0.000,   1
  102,'1 ',1,   1,   1,     5.000,     3.000,     0.000,     0.000,     0.000,     0.000,   1
  103,'1 ',1,   1,   1,    23.000,    16.000,     0.000,     0.000,     0.000,     0.000,   1
  104,'1 ',1,   1,   1,    38.000,    25.000,     0.000,     0.000,     0.000,     0.000,   1
  105,'1 ',1,   1,   1,    31.000,    26.000,     0.000,     0.000,     0.000,     0.000,   1
  106,'1 ',1,   1,   1,    43.000,    16.000,     0.000,     0.000,     0.000,     0.000,   1
  107,'1 ',1,   1,   1,    28.000,    12.000,     0.000,     0.000,     0.000,     0.000,   1
  108,'1 ',1,   1,   1,     2.000,     1.000,     0.000,     0.000,     0.000,     0.000,   1
  109,'1 ',1,   1,   1,     8.000,     3.000,     0.000,     0.000,     0.000,     0.000,   1
  110,'1 ',1,   1,   1,    39.000,    30.000,     0.000,     0.000,     0.000,     0.000,   1
  112,'1 ',1,   1,   1,    25.000,    13.000,     0.000,     0.000,     0.000,     0.000,   1
  114,'1 ',1,   1,   1,     8.000,     3.000,     0.000,     0.000,     0.000,     0.000,   1
  115,'1 ',1,   1,   1,    22.000,     7.000,     0.000,     0.000,     0.000,     0.000,   1
  117,'1 ',1,   1,   1,    20.000,     8.000,     0.000,     0.000,     0.000,     0.000,   1
  118,'1 ',1,   1,   1,    33.000,    15.000,     0.000,     0.000,     0.000,     0.000,   1
0 / END OF LOAD DATA, BEGIN GENERATOR DATA
    4,'1 ',    -9.000,   -15.542,   300.000,  -300.000,0.99800,    0,   100.000,   0.00000,   1.00000,   0.00000,   0.00000,1.00000,1,  100.0, 10000.000,-10000.000,   1,1.0000
    6,'1 ',     0.000,    15.773,    50.000,   -13.000,0.99000,    0,   100.000,   0.00000,   1.00000,   0.00000,   0.00000,1.00000,1,  100.0, 10000.000,-10000.000,   1,1.0000
    8,'1 ',   -28.000,    62.463,   300.000,  -300.000,1.01500,    0,   100.000,   0.00000,   1.00000,   0.00000,   0.00000,1.00000,1,  100.0, 10000.000,-10000.000,   1,1.0000
   10,'1 ',   450.000,   -50.881,   200.000,  -147.000,1.05000,    0,   100.000,   0.00000,   1.00000,   0.00000,   0.00000,1.00000,1,  100.0, 10000.000,-10000.000,   1,1.0000
   12,'1 ',    85.000,    88.382,   120.000,   -35.000,0.99000,    0,   100.000,   0.00000,   1.00000,   0.00000,   0.00000,1.00000,1,  100.0, 10000.000,-10000.000,   1,1.0000
   15,'1 ',     0.000,     3.064,    30.000,   -10.000,0.97000,    0,   100.000,   0.00000,   1.00000,   0.00000,   0.00000,1.00000,1,  100.0, 10000.000,-10000.000,   1,1.0000
   18,'1 ',     0.000,    25.506,    50.000,   -16.000,0.97300,    0,   100.000,   0.00000,   1.00000,   0.00000,   0.00000,1.00000,1,  100.0, 10000.000,-10000.000,   1,1.0000
   19,'1 ',     0.000,    -8.000,    24.000,    -8.000,0.96200,    0,   100.000,   0.00000,   1.00000,   0.00000,   0.00000,1.00000,1,  100.0, 10000.000,-10000.000,   1,1.0000
   24,'1 ',   -13.000,   -13.781,   300.000,  -300.000,0.99200,    0,   100.000,   0.00000,   1.00000,   0.00000,   0.00000,1.00000,1,  100.0, 10000.000,-10000.000,   1,1.0000
   25,'1 ',   220.000,    49.734,   140.000,   -47.000,1.05000,    0,   100.000,   0.00000,   1.00000,   0.00000,   0.00000,1.00000,1,  100.0, 10000.000,-10000.000,   1,1.0000
   26,'1 ',   314.000,    10.043,  1000.000, -1000.000,1.01500,    0,   100.000,   0.00000,   1.00000,   0.00000,   0.00000,1.00000,1,  100.0, 10000.000,-10000.000,   1,1.0000
   27,'1 ',    -9.000,     2.494,   300.000,  -300.000,0.96800,    0,   100.000,   0.00000,   1.00000,   0.00000,   0.00000,1.00000,1,  100.0, 10000.000,-10000.000,   1,1.0000
   31,'1 ',     7.000,     4.208,   300.000,  -300.000,0.96700,    0,   100.000,   0.00000,   1.00000,   0.00000,   0.00000,1.00000,1,  100.0, 10000.000,-10000.000,   1,1.0000
   32,'1 ',     0.000,   -14.000,    42.000,   -14.000,0.96300,    0,   100.000,   0.00000,   1.00000,   0.00000,   0.00000,1.00000,1,  100.0, 10000.000,-10000.000,   1,1.0000
   34,'1 ',     0.000,    -8.000,    24.000,    -8.000,0.98400,    0,   100.000,   0.00000,   1.00000,   0.00000,   0.00000,1.00000,1,  100.0, 10000.000,-10000.000,   1,1.0000
   36,'1 ',     0.000,    -1.187,    24.000,    -8.000,0.98000,    0,   100.000,   0.00000,   1.00000,   0.00000,   0.00000,1.00000,1,  100.0, 10000.000,-10000.000,   1,1.0000
   40,'1 ',   -46.000,    26.872,   300.000,  -300.000,0.97000,    0,   100.000,   0.00000,   1.00000,   0.00000,   0.00000,1.00000,1,  100.0, 10000.000,-10000.000,   1,1.0000
   42,'1 ',   -59.000,    41.026,   300.000,  -300.000,0.98500,    0,   100.000,   0.00000,   1.00000,   0.00000,   0.00000,1.00000,1,  100.0, 10000.000,-10000.000,   1,1.0000
   46,'1 ',    19.000,    -5.201,   100.000,  -100.000,1.00500,    0,   100.000,   0.00000,   1.00000,   0.00000,   0.00000,1.00000,1,  100.0, 10000.000,-10000.000,   1,1.0000
   49,'1 ',   204.000,   117.689,   210.000,   -85.000,1.02500,    0,   100.000,   0.00000,   1.00000,   0.00000,   0.00000,1.00000,1,  100.0, 10000.000,-10000.000,   1,1.0000
   54,'1 ',    48.000,     2.126,   300.000,  -300.000,0.95500,    0,   100.000,   0.00000,   1.00000,   0.00000,   0.00000,1.00000,1,  100.0, 10000.000,-10000.000,   1,1.0000
   55,'1 ',     0.000,     4.685,    23.000,    -8.000,0.95200,    0,   100.000,   0.00000,   1.00000,   0.00000,   0.00000,1.00000,1,  100.0, 10000.000,-10000.000,   1,1.0000
   56,'1 ',     0.000,    -2.178,    15.000,    -8.000,0.95400,    0,   100.000,   0.00000,   1.00000,   0.00000,   0.00000,1.00000,1,  100.0, 10000.000,-10000.000,   1,1.0000
   59,'1 ',   155.000,    76.362,   180.000,   -60.000,0.98500,    0,   100.000,   0.00000,   1.00000,   0.00000,   0.00000,1.00000,1,  100.0, 10000.000,-10000.000,   1,1.0000
   61,'1 ',   160.000,   -40.268,   300.000,  -100.000,0.99500,    0,   100.000,   0.00000,   1.00000,   0.00000,   0.00000,1.00000,1,  100.0, 10000.000,-10000.000,   1,1.0000
   62,'1 ',     0.000,     1.169,    20.000,   -20.000,0.99800,    0,   100.000,   0.00000,   1.00000,   0.00000,   0.00000,1.00000,1,  100.0, 10000.000,-10000.000,   1,1.0000
   65,'1 ',   391.000,    81.161,   200.000,   -67.000,1.00500,    0,   100.000,   0.00000,   1.00000,   0.00000,   0.00000,1.00000,1,  100.0, 10000.000,-10000.000,   1,1.0000
   66,'1 ',   392.000,    -1.923,   200.000,   -67.000,1.05000,    0,   100.000,   0.00000,   1.00000,   0.00000,   0.00000,1.00000,1,  100.0, 10000.000,-10000.000,   1,1.0000
   69,'1 ',   512.224,   -82.976, 99999.000,-99999.000,1.03500,    0,   100.000,   0.00000,   1.00000,   0.00000,   0.00000,1.00000,1,  100.0, 10000.000,-10000.000,   1,1.0000
   70,'1 ',     0.000,     7.833,    32.000,   -10.000,0.98400,    0,   100.000,   0.00000,   1.00000,   0.00000,   0.00000,1.00000,1,  100.0, 10000.000,-10000.000,   1,1.0000
   72,'1 ',   -12.000,   -11.125,   100.000,  -100.000,0.98000,    0,   100.000,   0.00000,   1.00000,   0.00000,   0.00000,1.00000,1,  100.0, 10000.000,-10000.000,   1,1.0000
   73,'1 ',    -6.000,     9.653,   100.000,  -100.000,0.99100,    0,   100.000,   0.00000,   1.00000,   0.00000,   0.00000,1.00000,1,  100.0, 10000.000,-10000.000,   1,1.0000
   74,'1 ',     0.000,    -6.000,     9.000,    -6.000,0.95800,    0,   100.000,   0.00000,   1.00000,   0.00000,   0.00000,1.00000,1,  100.0, 10000.000,-10000.000,   1,1.0000
   76,'1 ',     0.000,     3.751,    23.000,    -8.000,0.94300,    0,   100.000,   0.00000,   1.00000,   0.00000,   0.00000,1.00000,1,  100.0, 10000.000,-10000.000,   1,1.0000
   77,'1 ',     0.000,   -20.000,    70.000,   -20.000,1.00600,    0,   100.000,   0.00000,   1.00000,   0.00000,   0.00000,1.00000,1,  100.0, 10000.000,-10000.000,   1,1.0000
   80,'1 ',   477.000,   118.179,   280.000,  -165.000,1.04000,    0,   100.000,   0.00000,   1.00000,   0.00000,   0.00000,1.00000,1,  100.0, 10000.000,-10000.000,   1,1.0000
   82,'1 ',     0.000,    26.421,  9900.000, -9900.000,1.00000,    0,   100.000,   0.00000,   1.00000,   0.00000,   0.00000,1.00000,1,  100.0,  1000.000,     0.000,   1,1.0000
   85,'1 ',     0.000,    -8.000,    23.000,    -8.000,0.98500,    0,   100.000,   0.00000,   1.00000,   0.00000,   0.00000,1.00000,1,  100.0, 10000.000,-10000.000,   1,1.0000
   87,'1 ',     4.000,     9.964,  1000.000,  -100.000,1.01500,    0,   100.000,   0.00000,   1.00000,   0.00000,   0.00000,1.00000,1,  100.0, 10000.000,-10000.000,   1,1.0000
   89,'1 ',   607.000,   -26.263,   300.000,  -210.000,1.00500,    0,   100.000,   0.00000,   1.00000,   0.00000,   0.00000,1.00000,1,  100.0, 10000.000,-10000.000,   1,1.0000
   90,'1 ',   -85.000,    77.085,   300.000,  -300.000,0.98500,    0,   100.000,   0.00000,   1.00000,   0.00000,   0.00000,1.00000,1,  100.0, 10000.000,-10000.000,   1,1.0000
   91,'1 ',   -10.000,   -17.513,   100.000,  -100.000,0.98000,    0,   100.000,   0.00000,   1.00000,   0.00000,   0.00000,1.00000,1,  100.0, 10000.000,-10000.000,   1,1.0000
   92,'1 ',     0.000,    -3.000,     9.000,    -3.000,0.99000,    0,   100.000,   0.00000,   1.00000,   0.00000,   0.00000,1.00000,1,  100.0, 10000.000,-10000.000,   1,1.0000
   99,'1 ',   -42.000,   -17.561,   100.000,  -100.000,1.01000,    0,   100.000,   0.00000,   1.00000,   0.00000,   0.00000,1.00000,1,  100.0, 10000.000,-10000.000,   1,1.0000
  100,'1 ',   252.000,    75.745,   155.000,   -50.000,1.01700,    0,   100.000,   0.00000,   1.00000,   0.00000,   0.00000,1.00000,1,  100.0, 10000.000,-10000.000,   1,1.0000
  103,'1 ',    40.000,    40.000,    40.000,   -15.000,1.01000,    0,   100.000,   0.00000,   1.00000,   0.00000,   0.00000,1.00000,1,  100.0, 10000.000,-10000.000,   1,1.0000
  104,'1 ',     0.000,    23.000,    23.000,    -8.000,1.00000,    0,   100.000,   0.00000,   1.00000,   0.00000,   0.00000,1.00000,1,  100.0, 10000.000,-10000.000,   1,1.0000
  105,'1 ',     0.000,    23.000,    23.000,    -8.000,1.00000,    0,   100.000,   0.00000,   1.00000,   0.00000,   0.00000,1.00000,1,  100.0, 10000.000,-10000.000,   1,1.0000
  107,'1 ',   -22.000,    -8.707,   200.000,  -200.000,0.95200,    0,   100.000,   0.00000,   1.00000,   0.00000,   0.00000,1.00000,1,  100.0, 10000.000,-10000.000,   1,1.0000
  110,'1 ',     0.000,    -7.479,    23.000,    -8.000,0.97300,    0,   100.000,   0.00000,   1.00000,   0.00000,   0.00000,1.00000,1,  100.0, 10000.000,-10000.000,   1,1.0000
  111,'1 ',    36.000,    -1.844,  1000.000,  -100.000,0.98000,    0,   100.000,   0.00000,   1.00000,   0.00000,   0.00000,1.00000,1,  100.0, 10000.000,-10000.000,   1,1.0000
  112,'1 ',   -43.000,    41.512,  1000.000,  -100.000,0.97500,    0,   100.000,   0.00000,   1.00000,   0.00000,   0.00000,1.00000,1,  100.0, 10000.000,-10000.000,   1,1.0000
  113,'1 ',    -6.000,    34.613,   200.000,  -100.000,0.99300,    0,   100.000,   0.00000,   1.00000,   0.00000,   0.00000,1.00000,1,  100.0, 10000.000,-10000.000,   1,1.0000
  116,'1 ',  -184.000,    50.558,  1000.000, -1000.000,1.00500,    0,   100.000,   0.00000,   1.00000,   0.00000,   0.00000,1.00000,1,  100.0, 10000.000,-10000.000,   1,1.0000
0 / END OF GENERATOR DATA, BEGIN BRANCH DATA
    1,     2,'1 ',   0.03030,   0.09990,   0.02500,  100.00,    0.00,    0.00,,,  0.00000,  0.00000,  0.00000,  0.00000,1,   0.00,   1,1.0000
    1,     3,'1 ',   0.01290,   0.04240,   0.01080,  100.00,    0.00,    0.00,,,  0.00000,  0.00000,  0.00000,  0.00000,1,   0.00,   1,1.0000
    2,    12,'1 ',   0.01870,   0.06160,   0.01580,  100.00,    0.00,    0.00,,,  0.00000,  0.00000,  0.00000,  0.00000,1,   0.00,   1,1.0000
    3,     5,'1 ',   0.02410,   0.10800,   0.02840,  100.00,    0.00,    0.00,,,  0.00000,  0.00000,  0.00000,  0.00000,1,   0.00,   1,1.0000
    3,    12,'1 ',   0.04840,   0.16000,   0.04060,  100.00,    0.00,    0.00,,,  0.00000,  0.00000,  0.00000,  0.00000,1,   0.00,   1,1.0000
    4,     5,'1 ',   0.00180,   0.00800,   0.00210,  500.00,    0.00,    0.00,,,  0.00000,  0.00000,  0.00000,  0.00000,1,   0.00,   1,1.0000
    4,    11,'1 ',   0.02090,   0.06880,   0.01740,  100.00,    0.00,    0.00,,,  0.00000,  0.00000,  0.00000,  0.00000,1,   0.00,   1,1.0000
    5,     6,'1 ',   0.01190,   0.05400,   0.01420,  100.00,    0.00,    0.00,,,  0.00000,  0.00000,  0.00000,  0.00000,1,   0.00,   1,1.0000
    8,     5,'1 ',   0.00000,   0.02670,   0.00000,    0.00,    0.00,    0.00,0.98500,   0.000,  0.00000,  0.00000,  0.00000,  0.00000,1,   0.00,   1,1.0000
    5,    11,'1 ',   0.02030,   0.06820,   0.01740,  100.00,    0.00,    0.00,,,  0.00000,  0.00000,  0.00000,  0.00000,1,   0.00,   1,1.0000
    6,     7,'1 ',   0.00460,   0.02080,   0.00540,  100.00,    0.00,    0.00,,,  0.00000,  0.00000,  0.00000,  0.00000,1,   0.00,   1,1.0000
    7,    12,'1 ',   0.00860,   0.03400,   0.00880,  100.00,    0.00,    0.00,,,  0.00000,  0.00000,  0.00000,  0.00000,1,   0.00,   1,1.0000
    8,     9,'1 ',   0.00240,   0.03050,   1.16200,  500.00,    0.00,    0.00,,,  0.00000,  0.00000,  0.00000,  0.00000,1,   0.00,   1,1.0000
    8,    30,'1 ',   0.00430,   0.05040,   0.51400,  100.00,    0.00,    0.00,,,  0.00000,  0.00000,  0.00000,  0.00000,1,   0.00,   1,1.0000
    9,    10,'1 ',   0.00260,   0.03220,   1.23000,  500.00,    0.00,    0.00,,,  0.00000,  0.00000,  0.00000,  0.00000,1,   0.00,   1,1.0000
   11,    12,'1 ',   0.00590,   0.01960,   0.00500,  100.00,    0.00,    0.00,,,  0.00000,  0.00000,  0.00000,  0.00000,1,   0.00,   1,1.0000
   11,    13,'1 ',   0.02250,   0.07310,   0.01880,  100.00,    0.00,    0.00,,,  0.00000,  0.00000,  0.00000,  0.00000,1,   0.00,   1,1.0000
   12,    14,'1 ',   0.02150,   0.07070,   0.01820,  100.00,    0.00,    0.00,,,  0.00000,  0.00000,  0.00000,  0.00000,1,   0.00,   1,1.0000
   12,    16,'1 ',   0.02120,   0.08340,   0.02140,  100.00,    0.00,    0.00,,,  0.00000,  0.00000,  0.00000,  0.00000,1,   0.00,   1,1.0000
   12,   117,'1 ',   0.03290,   0.01400,   0.03580,  100.00,    0.00,    0.00,,,  0.00000,  0.00000,  0.00000,  0.00000,1,   0.00,   1,1.0000
   13,    15,'1 ',   0.07440,   0.24440,   0.06260,  100.00,    0.00,    0.00,,,  0.00000,  0.00000,  0.00000,  0.00000,1,   0.00,   1,1.0000
   14,    15,'1 ',   0.05950,   0.19500,   0.05020,  100.00,    0.00,    0.00,,,  0.00000,  0.00000,  0.00000,  0.00000,1,   0.00,   1,1.0000
   15,    17,'1 ',   0.01320,   0.04370,   0.04440,  500.00,    0.00,    0.00,,,  0.00000,  0.00000,  0.00000,  0.00000,1,   0.00,   1,1.0000
   15,    19,'1 ',   0.01200,   0.03940,   0.01000,  100.00,    0.00,    0.00,,,  0.00000,  0.00000,  0.00000,  0.00000,1,   0.00,   1,1.0000
   15,    33,'1 ',   0.03800,   0.12440,   0.03200,  100.00,    0.00,    0.00,,,  0.00000,  0.00000,  0.00000,  0.00000,1,   0.00,   1,1.0000
   16,    17,'1 ',   0.04540,   0.18010,   0.04660,  100.00,    0.00,    0.00,,,  0.00000,  0.00000,  0.00000,  0.00000,1,   0.00,   1,1.0000
   17,    18,'1 ',   0.01230,   0.05050,   0.01300,  100.00,    0.00,    0.00,,,  0.00000,  0.00000,  0.00000,  0.00000,1,   0.00,   1,1.0000
   30,    17,'1 ',   0.00000,   0.03880,   0.00000,    0.00,    0.00,    0.00,0.96000,   0.000,  0.00000,  0.00000,  0.00000,  0.00000,1,   0.00,   1,1.0000
   17,    31,'1 ',   0.04740,   0.15630,   0.03980,  100.00,    0.00,    0.00,,,  0.00000,  0.00000,  0.00000,  0.00000,1,   0.00,   1,1.0000
   17,   113,'1 ',   0.00910,   0.03010,   0.00770,  100.00,    0.00,    0.00,,,  0.00000,  0.00000,  0.00000,  0.00000,1,   0.00,   1,1.0000
   18,    19,'1 ',   0.01120,   0.04930,   0.01140,  100.00,    0.00,    0.00,,,  0.00000,  0.00000,  0.00000,  0.00000,1,   0.00,   1,1.0000
   19,    20,'1 ',   0.02520,   0.11700,   0.02980,  100.00,    0.00,    0.00,,,  0.00000,  0.00000,  0.00000,  0.00000,1,   0.00,   1,1.0000
   19,    34,'1 ',   0.07520,   0.24700,   0.06320,  100.00,    0.00,    0.00,,,  0.00000,  0.00000,  0.00000,  0.00000,1,   0.00,   1,1.0000
   20,    21,'1 ',   0.01830,   0.08490,   0.02160,  100.00,    0.00,    0.00,,,  0.00000,  0.00000,  0.00000,  0.00000,1,   0.00,   1,1.0000
   21,    22,'1 ',   0.02090,   0.09700,   0.02460,  100.00,    0.00,    0.00,,,  0.00000,  0.00000,  0.00000,  0.00000,1,   0.00,   1,1.0000
   22,    23,'1 ',   0.03420,   0.15900,   0.04040,  100.00,    0.00,    0.00,,,  0.00000,  0.00000,  0.00000,  0.00000,1,   0.00,   1,1.0000
   23,    24,'1 ',   0.01350,   0.04920,   0.04980,  100.00,    0.00,    0.00,,,  0.00000,  0.00000,  0.00000,  0.00000,1,   0.00,   1,1.0000
   23,    25,'1 ',   0.01560,   0.08000,   0.08640,  500.00,    0.00,    0.00,,,  0.00000,  0.00000,  0.00000,  0.00000,1,   0.00,   1,1.0000
   23,    32,'1 ',   0.03170,   0.11530,   0.11740,  100.00,    0.00,    0.00,,,  0.00000,  0.00000,  0.00000,  0.00000,1,   0.00,   1,1.0000
   24,    70,'1 ',   0.10220,   0.41150,   0.10200,  100.00,    0.00,    0.00,,,  0.00000,  0.00000,  0.00000,  0.00000,1,   0.00,   1,1.0000
   24,    72,'1 ',   0.04880,   0.19600,   0.04880,  100.00,    0.00,    0.00,,,  0.00000,  0.00000,  0.00000,  0.00000,1,   0.00,   1,1.0000
   26,    25,'1 ',   0.00000,   0.03820,   0.00000,    0.00,    0.00,    0.00,0.96000,   0.000,  0.00000,  0.00000,  0.00000,  0.00000,1,   0.00,   1,1.0000
   25,    27,'1 ',   0.03180,   0.16300,   0.17640,  500.00,    0.00,    0.00,,,  0.00000,  0.00000,  0.00000,  0.00000,1,   0.00,   1,1.0000
   26,    30,'1 ',   0.00800,   0.08600,   0.90800,  500.00,    0.00,    0.00,,,  0.00000,  0.00000,  0.00000,  0.00000,1,   0.00,   1,1.0000
   27,    28,'1 ',   0.01910,   0.08550,   0.02160,  100.00,    0.00,    0.00,,,  0.00000,  0.00000,  0.00000,  0.00000,1,   0.00,   1,1.0000
   27,    32,'1 ',   0.02290,   0.07550,   0.01920,  100.00,    0.00,    0.00,,,  0.00000,  0.00000,  0.00000,  0.00000,1,   0.00,   1,1.0000
   27,   115,'1 ',   0.01640,   0.07410,   0.01970,  100.00,    0.00,    0.00,,,  0.00000,  0.00000,  0.00000,  0.00000,1,   0.00,   1,1.0000
   28,    29,'1 ',   0.02370,   0.09430,   0.02380,  100.00,    0.00,    0.00,,,  0.00000,  0.00000,  0.00000,  0.00000,1,   0.00,   1,1.0000
   29,    31,'1 ',   0.01080,   0.03310,   0.00840,  100.00,    0.00,    0.00,,,  0.00000,  0.00000,  0.00000,  0.00000,1,   0.00,   1,1.0000
   30,    38,'1 ',   0.00460,   0.05400,   0.42200,    0.00,    0.00,    0.00,,,  0.00000,  0.00000,  0.00000,  0.00000,1,   0.00,   1,1.0000
   31,    32,'1 ',   0.02980,   0.09850,   0.02520,  100.00,    0.00,    0.00,,,  0.00000,  0.00000,  0.00000,  0.00000,1,   0.00,   1,1.0000
   31,  -113,'1 ',   0.00000,   0.10000,   0.00000, 1000.00, 1000.00, 1000.00,,,  0.00000,  0.00000,  0.00000,  0.00000,1,   0.00,   1,1.0000
   32,   113,'1 ',   0.06150,   0.20300,   0.05180,  100.00,    0.00,    0.00,,,  0.00000,  0.00000,  0.00000,  0.00000,1,   0.00,   1,1.0000
   32,   114,'1 ',   0.01350,   0.06120,   0.01630,  100.00,    0.00,    0.00,,,  0.00000,  0.00000,  0.00000,  0.00000,1,   0.00,   1,1.0000
   33,    37,'1 ',   0.04150,   0.14200,   0.03660,  100.00,    0.00,    0.00,,,  0.00000,  0.00000,  0.00000,  0.00000,1,   0.00,   1,1.0000
   34,    36,'1 ',   0.00870,   0.02680,   0.00560,  100.00,    0.00,    0.00,,,  0.00000,  0.00000,  0.00000,  0.00000,1,   0.00,   1,1.0000
   34,    37,'1 ',   0.00260,   0.00940,   0.00980,  500.00,    0.00,    0.00,,,  0.00000,  0.00000,  0.00000,  0.00000,1,   0.00,   1,1.0000
   34,    43,'1 ',   0.04130,   0.16810,   0.04220,  100.00,    0.00,    0.00,,,  0.00000,  0.00000,  0.00000,  0.00000,1,   0.00,   1,1.0000
   35,    36,'1 ',   0.00220,   0.01020,   0.00260,  100.00,    0.00,    0.00,,,  0.00000,  0.00000,  0.00000,  0.00000,1,   0.00,   1,1.0000
   35,    37,'1 ',   0.01100,   0.04970,   0.01320,  100.00,    0.00,    0.00,,,  0.00000,  0.00000,  0.00000,  0.00000,1,   0.00,   1,1.0000
   38,    37,'1 ',   0.00000,   0.03750,   0.00000,    0.00,    0.00,    0.00,0.93500,   0.000,  0.00000,  0.00000,  0.00000,  0.00000,1,   0.00,   1,1.0000
   37,    39,'1 ',   0.03210,   0.10600,   0.02700,  100.00,    0.00,    0.00,,,  0.00000,  0.00000,  0.00000,  0.00000,1,   0.00,   1,1.0000
   37,    40,'1 ',   0.05930,   0.16800,   0.04200,  100.00,    0.00,    0.00,,,  0.00000,  0.00000,  0.00000,  0.00000,1,   0.00,   1,1.0000
   38,    65,'1 ',   0.00900,   0.09860,   1.04600,  500.00,    0.00,    0.00,,,  0.00000,  0.00000,  0.00000,  0.00000,1,   0.00,   1,1.0000
   39,    40,'1 ',   0.01840,   0.06050,   0.01560,  100.00,    0.00,    0.00,,,  0.00000,  0.00000,  0.00000,  0.00000,1,   0.00,   1,1.0000
   40,    41,'1 ',   0.01450,   0.04870,   0.01220,  100.00,    0.00,    0.00,,,  0.00000,  0.00000,  0.00000,  0.00000,1,   0.00,   1,1.0000
   40,    42,'1 ',   0.05550,   0.18300,   0.04660,  100.00,    0.00,    0.00,,,  0.00000,  0.00000,  0.00000,  0.00000,1,   0.00,   1,1.0000
   41,    42,'1 ',   0.04100,   0.13500,   0.03420,  100.00,    0.00,    0.00,,,  0.00000,  0.00000,  0.00000,  0.00000,1,   0.00,   1,1.0000
   42,    49,'1 ',   0.07150,   0.32300,   0.08600,    0.00,    0.00,    0.00,,,  0.00000,  0.00000,  0.00000,  0.00000,1,   0.00,   1,1.0000
   42,    49,'2 ',   0.07150,   0.32300,   0.08600,  100.00,    0.00,    0.00,,,  0.00000,  0.00000,  0.00000,  0.00000,1,   0.00,   1,1.0000
   43,    44,'1 ',   0.06080,   0.24540,   0.06060,  100.00,    0.00,    0.00,,,  0.00000,  0.00000,  0.00000,  0.00000,1,   0.00,   1,1.0000
   44,    45,'1 ',   0.02240,   0.09010,   0.02240,  100.00,    0.00,    0.00,,,  0.00000,  0.00000,  0.00000,  0.00000,1,   0.00,   1,1.0000
   45,    46,'1 ',   0.04000,   0.13560,   0.03320,  100.00,    0.00,    0.00,,,  0.00000,  0.00000,  0.00000,  0.00000,1,   0.00,   1,1.0000
   45,    49,'1 ',   0.06840,   0.18600,   0.04440,  100.00,    0.00,    0.00,,,  0.00000,  0.00000,  0.00000,  0.00000,1,   0.00,   1,1.0000
   46,    47,'1 ',   0.03800,   0.12700,   0.03160,  100.00,    0.00,    0.00,,,  0.00000,  0.00000,  0.00000,  0.00000,1,   0.00,   1,1.0000
   46,    48,'1 ',   0.06010,   0.18900,   0.04720,  100.00,    0.00,    0.00,,,  0.00000,  0.00000,  0.00000,  0.00000,1,   0.00,   1,1.0000
   47,    49,'1 ',   0.01910,   0.06250,   0.01600,  100.00,    0.00,    0.00,,,  0.00000,  0.00000,  0.00000,  0.00000,1,   0.00,   1,1.0000
   47,   -69,'1 ',   0.08440,   0.27780,   0.07100,  100.00,    0.00,    0.00,,,  0.00000,  0.00000,  0.00000,  0.00000,1,   0.00,   1,1.0000
   48,    49,'1 ',   0.01790,   0.05050,   0.01260,  100.00,    0.00,    0.00,,,  0.00000,  0.00000,  0.00000,  0.00000,1,   0.00,   1,1.0000
   49,    50,'1 ',   0.02670,   0.07520,   0.01880,  100.00,    0.00,    0.00,,,  0.00000,  0.00000,  0.00000,  0.00000,1,   0.00,   1,1.0000
   49,    51,'1 ',   0.04860,   0.13700,   0.03420,  100.00,    0.00,    0.00,,,  0.00000,  0.00000,  0.00000,  0.00000,1,   0.00,   1,1.0000
   49,    54,'1 ',   0.07300,   0.28900,   0.07380,    0.00,    0.00,    0.00,,,  0.00000,  0.00000,  0.00000,  0.00000,1,   0.00,   1,1.0000
   49,    54,'2 ',   0.07300,   0.28900,   0.07380,  100.00,    0.00,    0.00,,,  0.00000,  0.00000,  0.00000,  0.00000,1,   0.00,   1,1.0000
   49,    66,'1 ',   0.01800,   0.09190,   0.02480,    0.00,    0.00,    0.00,,,  0.00000,  0.00000,  0.00000,  0.00000,1,   0.00,   1,1.0000
   49,    66,'2 ',   0.01800,   0.09190,   0.02480,  500.00,    0.00,    0.00,,,  0.00000,  0.00000,  0.00000,  0.00000,1,   0.00,   1,1.0000
   49,   -69,'1 ',   0.09850,   0.32400,   0.08280,  100.00,    0.00,    0.00,,,  0.00000,  0.00000,  0.00000,  0.00000,1,   0.00,   1,1.0000
   50,    57,'1 ',   0.04740,   0.13400,   0.03320,  100.00,    0.00,    0.00,,,  0.00000,  0.00000,  0.00000,  0.00000,1,   0.00,   1,1.0000
   51,    52,'1 ',   0.02030,   0.05880,   0.01400,  100.00,    0.00,    0.00,,,  0.00000,  0.00000,  0.00000,  0.00000,1,   0.00,   1,1.0000
   51,    58,'1 ',   0.02550,   0.07190,   0.01780,  100.00,    0.00,    0.00,,,  0.00000,  0.00000,  0.00000,  0.00000,1,   0.00,   1,1.0000
   52,    53,'1 ',   0.04050,   0.16350,   0.04060,  100.00,    0.00,    0.00,,,  0.00000,  0.00000,  0.00000,  0.00000,1,   0.00,   1,1.0000
   53,    54,'1 ',   0.02630,   0.12200,   0.03100,  100.00,    0.00,    0.00,,,  0.00000,  0.00000,  0.00000,  0.00000,1,   0.00,   1,1.0000
   54,    55,'1 ',   0.01690,   0.07070,   0.02020,  100.00,    0.00,    0.00,,,  0.00000,  0.00000,  0.00000,  0.00000,1,   0.00,   1,1.0000
   54,    56,'1 ',   0.00270,   0.00960,   0.00740,  100.00,    0.00,    0.00,,,  0.00000,  0.00000,  0.00000,  0.00000,1,   0.00,   1,1.0000
   54,    59,'1 ',   0.05030,   0.22930,   0.05980,  100.00,    0.00,    0.00,,,  0.00000,  0.00000,  0.00000,  0.00000,1,   0.00,   1,1.0000
   55,    56,'1 ',   0.00490,   0.01510,   0.00380,  100.00,    0.00,    0.00,,,  0.00000,  0.00000,  0.00000,  0.00000,1,   0.00,   1,1.0000
   55,    59,'1 ',   0.04740,   0.21580,   0.05640,  100.00,    0.00,    0.00,,,  0.00000,  0.00000,  0.00000,  0.00000,1,   0.00,   1,1.0000
   56,    57,'1 ',   0.03430,   0.09660,   0.02420,  100.00,    0.00,    0.00,,,  0.00000,  0.00000,  0.00000,  0.00000,1,   0.00,   1,1.0000
   56,    58,'1 ',   0.03430,   0.09660,   0.02420,  100.00,    0.00,    0.00,,,  0.00000,  0.00000,  0.00000,  0.00000,1,   0.00,   1,1.0000
   56,    59,'1 ',   0.08250,   0.25100,   0.05680,    0.00,    0.00,    0.00,,,  0.00000,  0.00000,  0.00000,  0.00000,1,   0.00,   1,1.0000
   56,    59,'2 ',   0.08250,   0.25100,   0.05680,  100.00,    0.00,    0.00,,,  0.00000,  0.00000,  0.00000,  0.00000,1,   0.00,   1,1.0000
   59,    60,'1 ',   0.03170,   0.14500,   0.03760,  100.00,    0.00,    0.00,,,  0.00000,  0.00000,  0.00000,  0.00000,1,   0.00,   1,1.0000
   59,    61,'1 ',   0.03280,   0.15000,   0.03880,  100.00,    0.00,    0.00,,,  0.00000,  0.00000,  0.00000,  0.00000,1,   0.00,   1,1.0000
   63,    59,'1 ',   0.00000,   0.03860,   0.00000,    0.00,    0.00,    0.00,0.96000,   0.000,  0.00000,  0.00000,  0.00000,  0.00000,1,   0.00,   1,1.0000
   60,    61,'1 ',   0.00260,   0.01350,   0.01460,  500.00,    0.00,    0.00,,,  0.00000,  0.00000,  0.00000,  0.00000,1,   0.00,   1,1.0000
   60,    62,'1 ',   0.01230,   0.05610,   0.01460,  100.00,    0.00,    0.00,,,  0.00000,  0.00000,  0.00000,  0.00000,1,   0.00,   1,1.0000
   61,    62,'1 ',   0.00820,   0.03760,   0.00980,  100.00,    0.00,    0.00,,,  0.00000,  0.00000,  0.00000,  0.00000,1,   0.00,   1,1.0000
   64,    61,'1 ',   0.00000,   0.02680,   0.00000,    0.00,    0.00,    0.00,0.98500,   0.000,  0.00000,  0.00000,  0.00000,  0.00000,1,   0.00,   1,1.0000
   62,    66,'1 ',   0.04820,   0.21800,   0.05780,  100.00,    0.00,    0.00,,,  0.00000,  0.00000,  0.00000,  0.00000,1,   0.00,   1,1.0000
   62,    67,'1 ',   0.02580,   0.11700,   0.03100,  100.00,    0.00,    0.00,,,  0.00000,  0.00000,  0.00000,  0.00000,1,   0.00,   1,1.0000
   63,    64,'1 ',   0.00170,   0.02000,   0.21600,  500.00,    0.00,    0.00,,,  0.00000,  0.00000,  0.00000,  0.00000,1,   0.00,   1,1.0000
   64,    65,'1 ',   0.00270,   0.03020,   0.38000,  500.00,    0.00,    0.00,,,  0.00000,  0.00000,  0.00000,  0.00000,1,   0.00,   1,1.0000
   65,    66,'1 ',   0.00000,   0.03700,   0.00000,    0.00,    0.00,    0.00,0.93500,   0.000,  0.00000,  0.00000,  0.00000,  0.00000,1,   0.00,   1,1.0000
   65,    68,'1 ',   0.00140,   0.01600,   0.63800,  100.00,    0.00,    0.00,,,  0.00000,  0.00000,  0.00000,  0.00000,1,   0.00,   1,1.0000
   66,    67,'1 ',   0.02240,   0.10150,   0.02680,  100.00,    0.00,    0.00,,,  0.00000,  0.00000,  0.00000,  0.00000,1,   0.00,   1,1.0000
   68,   -69,'1 ',   0.00000,   0.03700,   0.00000,    0.00,    0.00,    0.00,0.93500,   0.000,  0.00000,  0.00000,  0.00000,  0.00000,1,   0.00,   1,1.0000
   68,    81,'1 ',   0.00180,   0.02020,   0.80800,  100.00,    0.00,    0.00,,,  0.00000,  0.00000,  0.00000,  0.00000,1,   0.00,   1,1.0000
   68,   116,'1 ',   0.00030,   0.00410,   0.16400,  500.00,    0.00,    0.00,,,  0.00000,  0.00000,  0.00000,  0.00000,1,   0.00,   1,1.0000
   69,    70,'1 ',   0.03000,   0.12700,   0.12200,  500.00,    0.00,    0.00,,,  0.00000,  0.00000,  0.00000,  0.00000,1,   0.00,   1,1.0000
   69,    75,'1 ',   0.04050,   0.12200,   0.12400,  500.00,    0.00,    0.00,,,  0.00000,  0.00000,  0.00000,  0.00000,1,   0.00,   1,1.0000
   69,    77,'1 ',   0.03090,   0.10100,   0.10380,  100.00,    0.00,    0.00,,,  0.00000,  0.00000,  0.00000,  0.00000,1,   0.00,   1,1.0000
   70,    71,'1 ',   0.00880,   0.03550,   0.00880,  100.00,    0.00,    0.00,,,  0.00000,  0.00000,  0.00000,  0.00000,1,   0.00,   1,1.0000
   70,    74,'1 ',   0.04010,   0.13230,   0.03370,  100.00,    0.00,    0.00,,,  0.00000,  0.00000,  0.00000,  0.00000,1,   0.00,   1,1.0000
   70,    75,'1 ',   0.04280,   0.14100,   0.03600,  100.00,    0.00,    0.00,,,  0.00000,  0.00000,  0.00000,  0.00000,1,   0.00,   1,1.0000
   71,    72,'1 ',   0.04460,   0.18000,   0.04440,  100.00,    0.00,    0.00,,,  0.00000,  0.00000,  0.00000,  0.00000,1,   0.00,   1,1.0000
   71,    73,'1 ',   0.00870,   0.04540,   0.01180,  100.00,    0.00,    0.00,,,  0.00000,  0.00000,  0.00000,  0.00000,1,   0.00,   1,1.0000
   74,    75,'1 ',   0.01230,   0.04060,   0.01030,  100.00,    0.00,    0.00,,,  0.00000,  0.00000,  0.00000,  0.00000,1,   0.00,   1,1.0000
   75,    77,'1 ',   0.06010,   0.19990,   0.04980,  100.00,    0.00,    0.00,,,  0.00000,  0.00000,  0.00000,  0.00000,1,   0.00,   1,1.0000
   75,   118,'1 ',   0.01450,   0.04810,   0.01200,  100.00,    0.00,    0.00,,,  0.00000,  0.00000,  0.00000,  0.00000,1,   0.00,   1,1.0000
   76,    77,'1 ',   0.04440,   0.14800,   0.03680,  100.00,    0.00,    0.00,,,  0.00000,  0.00000,  0.00000,  0.00000,1,   0.00,   1,1.0000
   76,   118,'1 ',   0.01640,   0.05440,   0.01360,  100.00,    0.00,    0.00,,,  0.00000,  0.00000,  0.00000,  0.00000,1,   0.00,   1,1.0000
   77,    78,'1 ',   0.00380,   0.01240,   0.01260,  100.00,    0.00,    0.00,,,  0.00000,  0.00000,  0.00000,  0.00000,1,   0.00,   1,1.0000
   77,    80,'1 ',   0.01700,   0.04850,   0.04720,    0.00,    0.00,    0.00,,,  0.00000,  0.00000,  0.00000,  0.00000,1,   0.00,   1,1.0000
   77,   -80,'2 ',   0.01700,   0.04850,   0.04720,  500.00,    0.00,    0.00,,,  0.00000,  0.00000,  0.00000,  0.00000,1,   0.00,   1,1.0000
   77,    82,'1 ',   0.02980,   0.08530,   0.08170,  100.00,    0.00,    0.00,,,  0.00000,  0.00000,  0.00000,  0.00000,1,   0.00,   1,1.0000
   78,    79,'1 ',   0.00550,   0.02440,   0.00650,  100.00,    0.00,    0.00,,,  0.00000,  0.00000,  0.00000,  0.00000,1,   0.00,   1,1.0000
   79,    80,'1 ',   0.01560,   0.07040,   0.01870,  100.00,    0.00,    0.00,,,  0.00000,  0.00000,  0.00000,  0.00000,1,   0.00,   1,1.0000
   81,    80,'1 ',   0.00000,   0.03700,   0.00000,    0.00,    0.00,    0.00,0.93500,   0.000,  0.00000,  0.00000,  0.00000,  0.00000,1,   0.00,   1,1.0000
   80,    96,'1 ',   0.03560,   0.18200,   0.04940,  100.00,    0.00,    0.00,,,  0.00000,  0.00000,  0.00000,  0.00000,1,   0.00,   1,1.0000
   80,    97,'1 ',   0.01830,   0.09340,   0.02540,  100.00,    0.00,    0.00,,,  0.00000,  0.00000,  0.00000,  0.00000,1,   0.00,   1,1.0000
   80,    98,'1 ',   0.02380,   0.10800,   0.02860,  100.00,    0.00,    0.00,,,  0.00000,  0.00000,  0.00000,  0.00000,1,   0.00,   1,1.0000
   80,    99,'1 ',   0.04540,   0.20600,   0.05460,  100.00,    0.00,    0.00,,,  0.00000,  0.00000,  0.00000,  0.00000,1,   0.00,   1,1.0000
   82,    83,'1 ',   0.01120,   0.03660,   0.03800,  100.00,    0.00,    0.00,,,  0.00000,  0.00000,  0.00000,  0.00000,1,   0.00,   1,1.0000
   82,    96,'1 ',   0.01620,   0.05300,   0.05440,  100.00,    0.00,    0.00,,,  0.00000,  0.00000,  0.00000,  0.00000,1,   0.00,   1,1.0000
   83,    84,'1 ',   0.06250,   0.13200,   0.02580,  100.00,    0.00,    0.00,,,  0.00000,  0.00000,  0.00000,  0.00000,1,   0.00,   1,1.0000
   83,    85,'1 ',   0.04300,   0.14800,   0.03480,  100.00,    0.00,    0.00,,,  0.00000,  0.00000,  0.00000,  0.00000,1,   0.00,   1,1.0000
   84,    85,'1 ',   0.03020,   0.06410,   0.01230,  100.00,    0.00,    0.00,,,  0.00000,  0.00000,  0.00000,  0.00000,1,   0.00,   1,1.0000
   85,    86,'1 ',   0.03500,   0.12300,   0.02760,  100.00,    0.00,    0.00,,,  0.00000,  0.00000,  0.00000,  0.00000,1,   0.00,   1,1.0000
   85,    88,'1 ',   0.02000,   0.10200,   0.02760,  100.00,    0.00,    0.00,,,  0.00000,  0.00000,  0.00000,  0.00000,1,   0.00,   1,1.0000
   85,    89,'1 ',   0.02390,   0.17300,   0.04700,  100.00,    0.00,    0.00,,,  0.00000,  0.00000,  0.00000,  0.00000,1,   0.00,   1,1.0000
   86,    87,'1 ',   0.02828,   0.20740,   0.04500,    0.00,    0.00,    0.00,,,  0.00000,  0.00000,  0.00000,  0.00000,1,   0.00,   1,1.0000
   88,    89,'1 ',   0.01390,   0.07120,   0.01930,  500.00,    0.00,    0.00,,,  0.00000,  0.00000,  0.00000,  0.00000,1,   0.00,   1,1.0000
   89,    90,'1 ',   0.05180,   0.18800,   0.05280,    0.00,    0.00,    0.00,,,  0.00000,  0.00000,  0.00000,  0.00000,1,   0.00,   1,1.0000
   89,   -90,'2 ',   0.05180,   0.18800,   0.05280,  500.00,    0.00,    0.00,,,  0.00000,  0.00000,  0.00000,  0.00000,1,   0.00,   1,1.0000
   89,    92,'1 ',   0.00990,   0.05050,   0.05480,    0.00,    0.00,    0.00,,,  0.00000,  0.00000,  0.00000,  0.00000,1,   0.00,   1,1.0000
   89,   -92,'2 ',   0.00990,   0.05050,   0.05480,  500.00,    0.00,    0.00,,,  0.00000,  0.00000,  0.00000,  0.00000,1,   0.00,   1,1.0000
   90,   -91,'1 ',   0.02540,   0.08360,   0.02140,  100.00,    0.00,    0.00,,,  0.00000,  0.00000,  0.00000,  0.00000,1,   0.00,   1,1.0000
   91,    92,'1 ',   0.03870,   0.12720,   0.03270,  100.00,    0.00,    0.00,,,  0.00000,  0.00000,  0.00000,  0.00000,1,   0.00,   1,1.0000
   92,    93,'1 ',   0.02580,   0.08480,   0.02180,  100.00,    0.00,    0.00,,,  0.00000,  0.00000,  0.00000,  0.00000,1,   0.00,   1,1.0000
   92,    94,'1 ',   0.04810,   0.15800,   0.04060,  100.00,    0.00,    0.00,,,  0.00000,  0.00000,  0.00000,  0.00000,1,   0.00,   1,1.0000
   92,   100,'1 ',   0.06480,   0.29500,   0.07720,  100.00,    0.00,    0.00,,,  0.00000,  0.00000,  0.00000,  0.00000,1,   0.00,   1,1.0000
   92,   102,'1 ',   0.01230,   0.05590,   0.01460,  100.00,    0.00,    0.00,,,  0.00000,  0.00000,  0.00000,  0.00000,1,   0.00,   1,1.0000
   93,    94,'1 ',   0.02230,   0.07320,   0.01880,  100.00,    0.00,    0.00,,,  0.00000,  0.00000,  0.00000,  0.00000,1,   0.00,   1,1.0000
   94,    95,'1 ',   0.01320,   0.04340,   0.01110,  100.00,    0.00,    0.00,,,  0.00000,  0.00000,  0.00000,  0.00000,1,   0.00,   1,1.0000
   94,    96,'1 ',   0.02690,   0.08690,   0.02300,  100.00,    0.00,    0.00,,,  0.00000,  0.00000,  0.00000,  0.00000,1,   0.00,   1,1.0000
   94,   100,'1 ',   0.01780,   0.05800,   0.06040,  100.00,    0.00,    0.00,,,  0.00000,  0.00000,  0.00000,  0.00000,1,   0.00,   1,1.0000
   95,    96,'1 ',   0.01710,   0.05470,   0.01470,  100.00,    0.00,    0.00,,,  0.00000,  0.00000,  0.00000,  0.00000,1,   0.00,   1,1.0000
   96,    97,'1 ',   0.01730,   0.08850,   0.02400,  100.00,    0.00,    0.00,,,  0.00000,  0.00000,  0.00000,  0.00000,1,   0.00,   1,1.0000
   98,   100,'1 ',   0.03970,   0.17900,   0.04760,  100.00,    0.00,    0.00,,,  0.00000,  0.00000,  0.00000,  0.00000,1,   0.00,   1,1.0000
   99,   100,'1 ',   0.01800,   0.08130,   0.02160,  100.00,    0.00,    0.00,,,  0.00000,  0.00000,  0.00000,  0.00000,1,   0.00,   1,1.0000
  100,   101,'1 ',   0.02770,   0.12620,   0.03280,  100.00,    0.00,    0.00,,,  0.00000,  0.00000,  0.00000,  0.00000,1,   0.00,   1,1.0000
  100,   103,'1 ',   0.01600,   0.05250,   0.05360,  500.00,    0.00,    0.00,,,  0.00000,  0.00000,  0.00000,  0.00000,1,   0.00,   1,1.0000
  100,   104,'1 ',   0.04510,   0.20400,   0.05410,  100.00,    0.00,    0.00,,,  0.00000,  0.00000,  0.00000,  0.00000,1,   0.00,   1,1.0000
  100,   106,'1 ',   0.06050,   0.22900,   0.06200,  100.00,    0.00,    0.00,,,  0.00000,  0.00000,  0.00000,  0.00000,1,   0.00,   1,1.0000
  101,   102,'1 ',   0.02460,   0.11200,   0.02940,  100.00,    0.00,    0.00,,,  0.00000,  0.00000,  0.00000,  0.00000,1,   0.00,   1,1.0000
  103,   104,'1 ',   0.04660,   0.15840,   0.04070,  100.00,    0.00,    0.00,,,  0.00000,  0.00000,  0.00000,  0.00000,1,   0.00,   1,1.0000
  103,   105,'1 ',   0.05350,   0.16250,   0.04080,  100.00,    0.00,    0.00,,,  0.00000,  0.00000,  0.00000,  0.00000,1,   0.00,   1,1.0000
  103,   110,'1 ',   0.03910,   0.18130,   0.04610,  100.00,    0.00,    0.00,,,  0.00000,  0.00000,  0.00000,  0.00000,1,   0.00,   1,1.0000
  104,   105,'1 ',   0.00990,   0.03780,   0.00990,  100.00,    0.00,    0.00,,,  0.00000,  0.00000,  0.00000,  0.00000,1,   0.00,   1,1.0000
  105,   106,'1 ',   0.01400,   0.05470,   0.01430,  100.00,    0.00,    0.00,,,  0.00000,  0.00000,  0.00000,  0.00000,1,   0.00,   1,1.0000
  105,   107,'1 ',   0.05300,   0.18300,   0.04720,  100.00,    0.00,    0.00,,,  0.00000,  0.00000,  0.00000,  0.00000,1,   0.00,   1,1.0000
  105,   108,'1 ',   0.02610,   0.07030,   0.01840,  100.00,    0.00,    0.00,,,  0.00000,  0.00000,  0.00000,  0.00000,1,   0.00,   1,1.0000
  106,   107,'1 ',   0.05300,   0.18300,   0.04720,  100.00,    0.00,    0.00,,,  0.00000,  0.00000,  0.00000,  0.00000,1,   0.00,   1,1.0000
  108,   109,'1 ',   0.01050,   0.02880,   0.00760,  100.00,    0.00,    0.00,,,  0.00000,  0.00000,  0.00000,  0.00000,1,   0.00,   1,1.0000
  109,   110,'1 ',   0.02780,   0.07620,   0.02020,  100.00,    0.00,    0.00,,,  0.00000,  0.00000,  0.00000,  0.00000,1,   0.00,   1,1.0000
  110,   111,'1 ',   0.02200,   0.07550,   0.02000,  100.00,    0.00,    0.00,,,  0.00000,  0.00000,  0.00000,  0.00000,1,   0.00,   1,1.0000
  110,   112,'1 ',   0.02470,   0.06400,   0.06200,  100.00,    0.00,    0.00,,,  0.00000,  0.00000,  0.00000,  0.00000,1,   0.00,   1,1.0000
  114,   115,'1 ',   0.00230,   0.01040,   0.00280,  100.00,    0.00,    0.00,,,  0.00000,  0.00000,  0.00000,  0.00000,1,   0.00,   1,1.0000
0 / END OF BRANCH DATA, BEGIN TRANSFORMER ADJUSTMENT DATA
0 / END OF TRANSFORMER ADJUSTMENT DATA, BEGIN AREA DATA
   1,    0,     0.000,     1.000,'MAIN    '
   2,    0,     0.000,     1.000,'SLACK   '
0 / END OF AREA DATA, BEGIN TWO-TERMINAL DC DATA
0 / END OF TWO-TERMINAL DC DATA, BEGIN SWITCHED SHUNT DATA
    5,0,1.00000,1.00000,    0,  -40.00, 1, -40.00
   17,0,1.00000,1.00000,    0,    0.00, 1, 0
   34,0,1.00000,1.00000,    0,   14.00, 1,  14.00
   37,0,1.00000,1.00000,    0,  -25.00, 1, -25.00
   44,0,1.00000,1.00000,    0,   10.00, 1,  10.00
   45,0,1.00000,1.00000,    0,   10.00, 1,  10.00
   46,0,1.00000,1.00000,    0,   10.00, 1,  10.00
   48,0,1.00000,1.00000,    0,   15.00, 1,  15.00
   74,0,1.00000,1.00000,    0,   12.00, 1,  12.00
   79,0,1.00000,1.00000,    0,   20.00, 1,  20.00
   82,0,1.00000,1.00000,    0,   20.00, 1,  20.00
   83,0,1.00000,1.00000,    0,   10.00, 1,  10.00
  105,0,1.00000,1.00000,    0,   20.00, 1,  20.00
  107,0,1.00000,1.00000,    0,    6.00, 1,   6.00
  110,0,1.00000,1.00000,    0,    6.00, 1,   6.00
0 / END OF SWITCHED SHUNT DATA, BEGIN IMPEDANCE CORRECTION DATA
0 / END OF IMPEDANCE CORRECTION DATA, BEGIN MULTI-TERMINAL DC DATA
0 / END OF MULTI-TERMINAL DC DATA, BEGIN MULTI-SECTION LINE DATA
0 / END OF MULTI-SECTION LINE DATA, BEGIN ZONE DATA
   1,'1       '
0 / END OF ZONE DATA, BEGIN INTER-AREA TRANSFER DATA
0 / END OF INTER-AREA TRANSFER DATA, BEGIN OWNER DATA
0 / END OF OWNER DATA, BEGIN FACTS CONTROL DEVICE DATA
0 / END OF FACTS CONTROL DEVICE DATA
